electric-grid/physical/smallsignal/simplified-14gen-australia/models/lf_case04_r4_s/au14genmodel.raw
 0,    100.00, 33, 0, 0, 60.00       / September 03, 2016 23:36:11; Simulator Version 20 Beta; BuildDate 2016_7_25
LF_CASE04_R3_S   14-GEN. SIMPLIFIED MODEL OF THE 4-STATE
SYSTEM: LIGHTLD AREA4<-AREA2->AREA3->AREA5 200-200-200MW
  101,'1_HPSGEN    ',  15.0000,2,   1,   1,   1,1.00000, -21.6114, 1.10000, 0.90000, 1.10000, 0.90000
  102,'1_HPS330    ', 330.0000,1,   1,   1,   1,1.03505, -21.6114, 1.10000, 0.90000, 1.10000, 0.90000
  201,'2_BPSGEN    ',  20.0000,2,   2,   1,   1,1.00000,   5.8889, 1.10000, 0.90000, 1.10000, 0.90000
  202,'2_EPSGEN    ',  20.0000,2,   2,   1,   1,1.00000,   1.5270, 1.10000, 0.90000, 1.10000, 0.90000
  203,'2_VPSGEN    ',  20.0000,2,   2,   1,   1,1.00000,   1.1930, 1.10000, 0.90000, 1.10000, 0.90000
  204,'2_MPSGEN    ',  20.0000,3,   2,   1,   1,1.00000,   0.0000, 1.10000, 0.90000, 1.10000, 0.90000
  205,'2_ASV330    ', 330.0000,2,   2,   1,   1,1.04500, -10.7009, 1.10000, 0.90000, 1.10000, 0.90000
  206,'2_BPS330    ', 330.0000,1,   2,   1,   1,1.01570,  -1.4419, 1.10000, 0.90000, 1.10000, 0.90000
  207,'2_N__330    ', 330.0000,1,   2,   1,   1,1.00308,  -7.4576, 1.10000, 0.90000, 1.10000, 0.90000
  208,'2_VPS330    ', 330.0000,1,   2,   1,   1,1.00744,  -7.0145, 1.10000, 0.90000, 1.10000, 0.90000
  209,'2_EPS330    ', 330.0000,1,   2,   1,   1,1.00944,  -6.0143, 1.10000, 0.90000, 1.10000, 0.90000
  210,'2_EPS500    ', 500.0000,1,   2,   1,   1,1.04585,  -8.2700, 1.10000, 0.90000, 1.10000, 0.90000
  211,'2_SN_330    ', 330.0000,1,   2,   1,   1,1.01444, -12.5332, 1.10000, 0.90000, 1.10000, 0.90000
  212,'2_SW_330    ', 330.0000,1,   2,   1,   1,1.02324, -12.8036, 1.10000, 0.90000, 1.10000, 0.90000
  213,'2_K__500    ', 500.0000,1,   2,   1,   1,1.04484, -10.6558, 1.10000, 0.90000, 1.10000, 0.90000
  214,'2_K__330    ', 330.0000,1,   2,   1,   1,1.03741, -12.9012, 1.10000, 0.90000, 1.10000, 0.90000
  215,'2_MPS330    ', 330.0000,1,   2,   1,   1,1.01498,  -5.4177, 1.10000, 0.90000, 1.10000, 0.90000
  216,'2_SS_330    ', 330.0000,1,   2,   1,   1,1.03448, -14.6756, 1.10000, 0.90000, 1.10000, 0.90000
  217,'2_YC_330    ', 330.0000,1,   2,   1,   1,1.03222, -17.4585, 1.10000, 0.90000, 1.10000, 0.90000
  301,'3_LPSGEN    ',  20.0000,2,   3,   1,   1,1.00000,  -6.3760, 1.10000, 0.90000, 1.10000, 0.90000
  302,'3_YPSGEN    ',  20.0000,2,   3,   1,   1,1.00000, -15.3759, 1.10000, 0.90000, 1.10000, 0.90000
  303,'3_LPS500    ', 500.0000,1,   3,   1,   1,1.00488, -13.9932, 1.10000, 0.90000, 1.10000, 0.90000
  304,'3_R__500    ', 500.0000,1,   3,   1,   1,1.00542, -22.8961, 1.10000, 0.90000, 1.10000, 0.90000
  305,'3_SM_500    ', 500.0000,1,   3,   1,   1,1.01630, -24.0074, 1.10000, 0.90000, 1.10000, 0.90000
  306,'3_K__500    ', 500.0000,1,   3,   1,   1,1.01830, -25.5722, 1.10000, 0.90000, 1.10000, 0.90000
  307,'3_M__500    ', 500.0000,1,   3,   1,   1,1.02073, -25.6052, 1.10000, 0.90000, 1.10000, 0.90000
  308,'3_H__500    ', 500.0000,1,   3,   1,   1,1.04410, -32.9503, 1.10000, 0.90000, 1.10000, 0.90000
  309,'3_D__330    ', 330.0000,1,   3,   1,   1,1.04184, -23.2477, 1.10000, 0.90000, 1.10000, 0.90000
  310,'3_SS_330    ', 330.0000,1,   3,   1,   1,1.00776, -24.1658, 1.10000, 0.90000, 1.10000, 0.90000
  311,'3_SM_330    ', 330.0000,1,   3,   1,   1,1.03746, -23.6268, 1.10000, 0.90000, 1.10000, 0.90000
  312,'3_YPS220    ', 220.0000,1,   3,   1,   1,1.01132, -22.6723, 1.10000, 0.90000, 1.10000, 0.90000
  313,'3_RSV220    ', 220.0000,2,   3,   1,   1,1.01500, -28.3641, 1.10000, 0.90000, 1.10000, 0.90000
  314,'3_SM_220    ', 220.0000,1,   3,   1,   1,1.01615, -27.4335, 1.10000, 0.90000, 1.10000, 0.90000
  315,'3_H__275    ', 275.0000,1,   3,   1,   1,1.04266, -34.3710, 1.10000, 0.90000, 1.10000, 0.90000
  401,'4_TPSGEN    ',  20.0000,2,   4,   1,   1,1.00000, -13.1023, 1.10000, 0.90000, 1.10000, 0.90000
  402,'4_CPSGEN    ',  20.0000,2,   4,   1,   1,1.00000,   2.2176, 1.10000, 0.90000, 1.10000, 0.90000
  403,'4_SPSGEN    ',  20.0000,2,   4,   1,   1,1.00000,   1.9551, 1.10000, 0.90000, 1.10000, 0.90000
  404,'4_GPSGEN    ',  20.0000,2,   4,   1,   1,1.00000,  -4.7264, 1.10000, 0.90000, 1.10000, 0.90000
  405,'4_GPS275    ', 275.0000,1,   4,   1,   1,1.00788, -11.0305, 1.10000, 0.90000, 1.10000, 0.90000
  406,'4_N__275    ', 275.0000,1,   4,   1,   1,0.99929,  -6.2002, 1.10000, 0.90000, 1.10000, 0.90000
  407,'4_SPS275    ', 275.0000,1,   4,   1,   1,1.00106,  -4.2495, 1.10000, 0.90000, 1.10000, 0.90000
  408,'4_CPS275    ', 275.0000,1,   4,   1,   1,1.01206,  -6.1855, 1.10000, 0.90000, 1.10000, 0.90000
  409,'4_W__275    ', 275.0000,1,   4,   1,   1,1.03289, -21.2617, 1.10000, 0.90000, 1.10000, 0.90000
  410,'4_TPS275    ', 275.0000,1,   4,   1,   1,1.01319, -19.2323, 1.10000, 0.90000, 1.10000, 0.90000
  411,'4_SP_275    ', 275.0000,1,   4,   1,   1,1.00629, -25.8085, 1.10000, 0.90000, 1.10000, 0.90000
  412,'4_BW_275    ', 275.0000,2,   4,   1,   1,1.00000, -25.9330, 1.10000, 0.90000, 1.10000, 0.90000
  413,'4_BR_275    ', 275.0000,1,   4,   1,   1,1.04649, -16.8207, 1.10000, 0.90000, 1.10000, 0.90000
  414,'4_BR_330    ', 330.0000,1,   4,   1,   1,1.03316, -16.5546, 1.10000, 0.90000, 1.10000, 0.90000
  415,'4_BU_330    ', 330.0000,1,   4,   1,   1,1.04457, -15.3272, 1.10000, 0.90000, 1.10000, 0.90000
  416,'4_DU_330    ', 330.0000,1,   4,   1,   1,1.05436, -13.0596, 1.10000, 0.90000, 1.10000, 0.90000
  501,'5_NPSGEN    ',  20.0000,2,   5,   1,   1,1.00000, -31.4257, 1.10000, 0.90000, 1.10000, 0.90000
  502,'5_TPSGEN    ',  15.0000,2,   5,   1,   1,1.00000, -32.9898, 1.10000, 0.90000, 1.10000, 0.90000
  503,'5_PPSGEN    ',  15.0000,2,   5,   1,   1,1.00000, -32.4542, 1.10000, 0.90000, 1.10000, 0.90000
  504,'5_D__275    ', 275.0000,1,   5,   1,   1,1.03667, -39.3433, 1.10000, 0.90000, 1.10000, 0.90000
  505,'5_TPS275    ', 275.0000,1,   5,   1,   1,1.00777, -39.5527, 1.10000, 0.90000, 1.10000, 0.90000
  506,'5_PPS275    ', 275.0000,1,   5,   1,   1,1.00901, -41.0035, 1.10000, 0.90000, 1.10000, 0.90000
  507,'5_PSV275    ', 275.0000,2,   5,   1,   1,1.01000, -41.5374, 1.10000, 0.90000, 1.10000, 0.90000
  508,'5_CG_275    ', 275.0000,1,   5,   1,   1,1.00469, -41.6220, 1.10000, 0.90000, 1.10000, 0.90000
  509,'5_SSV275    ', 275.0000,2,   5,   1,   1,1.03000, -36.9839, 1.10000, 0.90000, 1.10000, 0.90000
0 / END OF BUS DATA, BEGIN LOAD DATA
  102,'1 ',1,   1,   1,   270.000,    30.000,     0.000,     0.000,     0.000,     0.000,   1,1
  205,'1 ',1,   2,   1,   235.000,    25.000,     0.000,     0.000,     0.000,     0.000,   1,1
  206,'1 ',1,   2,   1,    80.000,    10.000,     0.000,     0.000,     0.000,     0.000,   1,1
  207,'1 ',1,   2,   1,  1130.000,   120.000,     0.000,     0.000,     0.000,     0.000,   1,1
  208,'1 ',1,   2,   1,   125.000,    15.000,     0.000,     0.000,     0.000,     0.000,   1,1
  211,'1 ',1,   2,   1,  1060.000,   110.000,     0.000,     0.000,     0.000,     0.000,   1,1
  212,'1 ',1,   2,   1,  1000.000,   110.000,     0.000,     0.000,     0.000,     0.000,   1,1
  215,'1 ',1,   2,   1,   290.000,    30.000,     0.000,     0.000,     0.000,     0.000,   1,1
  216,'1 ',1,   2,   1,  1105.000,   120.000,     0.000,     0.000,     0.000,     0.000,   1,1
  217,'1 ',1,   2,   1,   750.000,    80.000,     0.000,     0.000,     0.000,     0.000,   1,1
  306,'1 ',1,   3,   1,   900.000,    90.000,     0.000,     0.000,     0.000,     0.000,   1,1
  307,'1 ',1,   3,   1,   470.000,    50.000,     0.000,     0.000,     0.000,     0.000,   1,1
  308,'1 ',1,   3,   1,   620.000,   100.000,     0.000,     0.000,     0.000,     0.000,   1,1
  309,'1 ',1,   3,   1,   140.000,    15.000,     0.000,     0.000,     0.000,     0.000,   1,1
  312,'1 ',1,   3,   1,    92.000,    10.000,     0.000,     0.000,     0.000,     0.000,   1,1
  313,'1 ',1,   3,   1,  1625.000,   165.000,     0.000,     0.000,     0.000,     0.000,   1,1
  314,'1 ',1,   3,   1,   180.000,    20.000,     0.000,     0.000,     0.000,     0.000,   1,1
  405,'1 ',1,   4,   1,   730.000,    75.000,     0.000,     0.000,     0.000,     0.000,   1,1
  406,'1 ',1,   4,   1,   540.000,    55.000,     0.000,     0.000,     0.000,     0.000,   1,1
  407,'1 ',1,   4,   1,     0.000,     0.000,     0.000,     0.000,     0.000,     0.000,   1,1
  408,'1 ',1,   4,   1,   110.000,    10.000,     0.000,     0.000,     0.000,     0.000,   1,1
  409,'1 ',1,   4,   1,   190.000,    20.000,     0.000,     0.000,     0.000,     0.000,   1,1
  410,'1 ',1,   4,   1,   390.000,    40.000,     0.000,     0.000,     0.000,     0.000,   1,1
  411,'1 ',1,   4,   1,   420.000,    45.000,     0.000,     0.000,     0.000,     0.000,   1,1
  412,'1 ',1,   4,   1,   922.000,   100.000,     0.000,     0.000,     0.000,     0.000,   1,1
  504,'1 ',1,   5,   1,   180.000,    20.000,     0.000,     0.000,     0.000,     0.000,   1,1
  507,'1 ',1,   5,   1,   640.000,    65.000,     0.000,     0.000,     0.000,     0.000,   1,1
  508,'1 ',1,   5,   1,   490.000,    50.000,     0.000,     0.000,     0.000,     0.000,   1,1
  509,'1 ',1,   5,   1,   122.000,    15.000,     0.000,     0.000,     0.000,     0.000,   1,1
0 / END OF LOAD DATA, BEGIN FIXED SHUNT DATA
   212,' 1', 1,     0.000,   400.000
   216,' 1', 1,     0.000,   300.000
   409,' 1', 1,     0.000,    60.000
   411,' 1', 1,     0.000,    30.000
   414,' 1', 1,     0.000,   -30.000
   415,' 1', 1,     0.000,   -60.000
   416,' 1', 1,     0.000,   -60.000
0 / END OF FIXED SHUNT DATA, BEGIN GENERATOR DATA
  101,'1 ',     0.000,  -194.712,   290.564,  -290.564,1.00000,    0,   666.600,   0.00000,   0.25000,   0.00000,   0.00000,1.00000,1,  100.0,   600.000,     0.000,   1,1.0000,   0,1.0000,   0,1.0000,   0,1.0000,0, 1.0000
  201,'1 ',  2160.000,  -123.275,  1162.432, -1162.432,1.00000,    0,  2666.800,   0.00000,   0.21000,   0.00000,   0.00000,1.00000,1,  100.0,  2400.000,     0.000,   1,1.0000,   0,1.0000,   0,1.0000,   0,1.0000,0, 1.0000
  202,'1 ',  1380.000,    -7.368,   726.540,  -726.540,1.00000,    0,  1666.800,   0.00000,   0.20000,   0.00000,   0.00000,1.00000,1,  100.0,  1500.000,     0.000,   1,1.0000,   0,1.0000,   0,1.0000,   0,1.0000,0, 1.0000
  203,'1 ',  1410.000,    28.233,   726.540,  -726.540,1.00000,    0,  1666.800,   0.00000,   0.25000,   0.00000,   0.00000,1.00000,1,  100.0,  1500.000,     0.000,   1,1.0000,   0,1.0000,   0,1.0000,   0,1.0000,0, 1.0000
  204,'1 ',  1597.177,  -174.209,  1162.432, -1162.432,1.00000,    0,  2666.800,   0.00000,   0.21000,   0.00000,   0.00000,1.00000,1,  100.0,  2400.000,     0.000,   1,1.0000,   0,1.0000,   0,1.0000,   0,1.0000,0, 1.0000
  205,'1 ',     0.000,   -39.361,   430.000,  -220.000,1.04500,    0,   650.000,   0.00000, 999.00000,   0.00000,   0.00000,1.00000,1,  100.0,     0.000,     0.000,   1,1.0000,   0,1.0000,   0,1.0000,   0,1.0000,0, 1.0000
  301,'1 ',  3330.000,    99.711,  1743.648, -1743.648,1.00000,    0,  4000.200,   0.00000,   0.25000,   0.00000,   0.00000,1.00000,1,  100.0,  3600.000,     0.000,   1,1.0000,   0,1.0000,   0,1.0000,   0,1.0000,0, 1.0000
  302,'1 ',   760.000,   -18.512,   387.418,  -387.418,1.00000,    0,   888.800,   0.00000,   0.20000,   0.00000,   0.00000,1.00000,1,  100.0,   800.000,     0.000,   1,1.0000,   0,1.0000,   0,1.0000,   0,1.0000,0, 1.0000
  313,'1 ',     0.000,    86.704,   600.000,  -200.000,1.01500,    0,   800.000,   0.00000, 999.00000,   0.00000,   0.00000,1.00000,1,  100.0,     0.000,     0.000,   1,1.0000,   0,1.0000,   0,1.0000,   0,1.0000,0, 1.0000
  401,'1 ',   960.000,   -65.621,   581.127,  -581.127,1.00000,    0,  1333.200,   0.00000,   0.25000,   0.00000,   0.00000,1.00000,1,  100.0,  1200.000,     0.000,   1,1.0000,   0,1.0000,   0,1.0000,   0,1.0000,0, 1.0000
  402,'1 ',   580.000,    -4.705,   290.564,  -290.564,1.00000,    0,   666.600,   0.00000,   0.26000,   0.00000,   0.00000,1.00000,1,  100.0,   600.000,     0.000,   1,1.0000,   0,1.0000,   0,1.0000,   0,1.0000,0, 1.0000
  403,'1 ',   960.000,    42.659,   581.127,  -581.127,1.00000,    0,  1333.200,   0.00000,   0.25000,   0.00000,   0.00000,1.00000,1,  100.0,  1200.000,     0.000,   1,1.0000,   0,1.0000,   0,1.0000,   0,1.0000,0, 1.0000
  404,'1 ',   651.000,   -10.516,   435.846,  -435.846,1.00000,    0,   999.900,   0.00000,   0.24000,   0.00000,   0.00000,1.00000,1,  100.0,   900.000,     0.000,   1,1.0000,   0,1.0000,   0,1.0000,   0,1.0000,0, 1.0000
  412,'1 ',     0.000,   -53.021,  1100.000,  -330.000,1.00000,    0,  1430.000,   0.00000, 999.00000,   0.00000,   0.00000,1.00000,1,  100.0,     0.000,     0.000,   1,1.0000,   0,1.0000,   0,1.0000,   0,1.0000,0, 1.0000
  501,'1 ',   560.000,  -105.052,   290.564,  -290.564,1.00000,    0,   666.600,   0.00000,   0.24000,   0.00000,   0.00000,1.00000,1,  100.0,   600.000,     0.000,   1,1.0000,   0,1.0000,   0,1.0000,   0,1.0000,0, 1.0000
  502,'1 ',   540.000,    -5.474,   450.000,  -450.000,1.00000,    0,   750.000,   0.00000,   0.22000,   0.00000,   0.00000,1.00000,1,  100.0,   600.000,     0.000,   1,1.0000,   0,1.0000,   0,1.0000,   0,1.0000,0, 1.0000
  503,'1 ',   150.000,     2.203,    72.663,   -72.663,1.00000,    0,   166.700,   0.00000,   0.17000,   0.00000,   0.00000,1.00000,1,  100.0,   150.000,     0.000,   1,1.0000,   0,1.0000,   0,1.0000,   0,1.0000,0, 1.0000
  507,'1 ',     0.000,    -4.019,   320.000,  -180.000,1.01000,    0,   500.000,   0.00000, 999.00000,   0.00000,   0.00000,1.00000,1,  100.0,     0.000,     0.000,   1,1.0000,   0,1.0000,   0,1.0000,   0,1.0000,0, 1.0000
  509,'1 ',     0.000,  -109.260,   400.000,  -150.000,1.03000,    0,   550.000,   0.00000, 999.00000,   0.00000,   0.00000,1.00000,1,  100.0,     0.000,     0.000,   1,1.0000,   0,1.0000,   0,1.0000,   0,1.0000,0, 1.0000
0 / END OF GENERATOR DATA, BEGIN BRANCH DATA
  102,   217,'1 ', 0.00840, 0.06670,0.81700,   0.00,   0.00,   0.00,  0.00000,  0.00000,  0.00000,  0.00000,1,1,   0.0,   1,1.0000,   0,1.0000,   0,1.0000,   0,1.0000
  102,   217,'2 ', 0.00840, 0.06670,0.81700,   0.00,   0.00,   0.00,  0.00000,  0.00000,  0.00000,  0.00000,1,1,   0.0,   1,1.0000,   0,1.0000,   0,1.0000,   0,1.0000
  102,   217,'3 ', 0.00780, 0.06200,0.76000,   0.00,   0.00,   0.00,  0.00000,  0.00000,  0.00000,  0.00000,1,1,   0.0,   1,1.0000,   0,1.0000,   0,1.0000,   0,1.0000
  102,   217,'4 ', 0.00780, 0.06200,0.76000,   0.00,   0.00,   0.00,  0.00000,  0.00000,  0.00000,  0.00000,1,1,   0.0,   1,1.0000,   0,1.0000,   0,1.0000,   0,1.0000
  102,   309,'1 ', 0.00450, 0.03560,0.43700,   0.00,   0.00,   0.00,  0.00000,  0.00000,  0.00000,  0.00000,1,1,   0.0,   1,1.0000,   0,1.0000,   0,1.0000,   0,1.0000
  102,   309,'2 ', 0.00450, 0.03560,0.43700,   0.00,   0.00,   0.00,  0.00000,  0.00000,  0.00000,  0.00000,1,1,   0.0,   1,1.0000,   0,1.0000,   0,1.0000,   0,1.0000
  102,   309,'3 ', 0.01090, 0.08680,0.76000,   0.00,   0.00,   0.00,  0.00000,  0.00000,  0.00000,  0.00000,1,1,   0.0,   1,1.0000,   0,1.0000,   0,1.0000,   0,1.0000
  205,   206,'1 ', 0.00960, 0.07600,0.93100,   0.00,   0.00,   0.00,  0.00000,  0.00000,  0.00000,  0.00000,1,1,   0.0,   1,1.0000,   0,1.0000,   0,1.0000,   0,1.0000
  205,   206,'2 ', 0.00960, 0.07600,0.93100,   0.00,   0.00,   0.00,  0.00000,  0.00000,  0.00000,  0.00000,1,1,   0.0,   1,1.0000,   0,1.0000,   0,1.0000,   0,1.0000
  205,   416,'1 ', 0.00370, 0.04600,0.73000,   0.00,   0.00,   0.00,  0.00000,  0.00000,  0.00000,  0.00000,1,1,   0.0,   1,1.0000,   0,1.0000,   0,1.0000,   0,1.0000
  205,   416,'2 ', 0.00370, 0.04600,0.73000,   0.00,   0.00,   0.00,  0.00000,  0.00000,  0.00000,  0.00000,1,1,   0.0,   1,1.0000,   0,1.0000,   0,1.0000,   0,1.0000
  206,   207,'1 ', 0.00450, 0.03560,0.43700,   0.00,   0.00,   0.00,  0.00000,  0.00000,  0.00000,  0.00000,1,1,   0.0,   1,1.0000,   0,1.0000,   0,1.0000,   0,1.0000
  206,   207,'2 ', 0.00450, 0.03560,0.43700,   0.00,   0.00,   0.00,  0.00000,  0.00000,  0.00000,  0.00000,1,1,   0.0,   1,1.0000,   0,1.0000,   0,1.0000,   0,1.0000
  206,   212,'1 ', 0.00660, 0.05270,0.64600,   0.00,   0.00,   0.00,  0.00000,  0.00000,  0.00000,  0.00000,1,1,   0.0,   1,1.0000,   0,1.0000,   0,1.0000,   0,1.0000
  206,   212,'2 ', 0.00660, 0.05270,0.64600,   0.00,   0.00,   0.00,  0.00000,  0.00000,  0.00000,  0.00000,1,1,   0.0,   1,1.0000,   0,1.0000,   0,1.0000,   0,1.0000
  206,   215,'1 ', 0.00660, 0.05270,0.64600,   0.00,   0.00,   0.00,  0.00000,  0.00000,  0.00000,  0.00000,1,1,   0.0,   1,1.0000,   0,1.0000,   0,1.0000,   0,1.0000
  206,   215,'2 ', 0.00660, 0.05270,0.64600,   0.00,   0.00,   0.00,  0.00000,  0.00000,  0.00000,  0.00000,1,1,   0.0,   1,1.0000,   0,1.0000,   0,1.0000,   0,1.0000
  207,   208,'1 ', 0.00180, 0.01400,0.17100,   0.00,   0.00,   0.00,  0.00000,  0.00000,  0.00000,  0.00000,1,1,   0.0,   1,1.0000,   0,1.0000,   0,1.0000,   0,1.0000
  207,   208,'2 ', 0.00180, 0.01400,0.17100,   0.00,   0.00,   0.00,  0.00000,  0.00000,  0.00000,  0.00000,1,1,   0.0,   1,1.0000,   0,1.0000,   0,1.0000,   0,1.0000
  207,   209,'1 ', 0.00080, 0.00620,0.07600,   0.00,   0.00,   0.00,  0.00000,  0.00000,  0.00000,  0.00000,1,1,   0.0,   1,1.0000,   0,1.0000,   0,1.0000,   0,1.0000
  208,   211,'1 ', 0.00310, 0.02480,0.30400,   0.00,   0.00,   0.00,  0.00000,  0.00000,  0.00000,  0.00000,1,1,   0.0,   1,1.0000,   0,1.0000,   0,1.0000,   0,1.0000
  208,   211,'2 ', 0.00310, 0.02480,0.30400,   0.00,   0.00,   0.00,  0.00000,  0.00000,  0.00000,  0.00000,1,1,   0.0,   1,1.0000,   0,1.0000,   0,1.0000,   0,1.0000
  208,   211,'3 ', 0.00310, 0.02480,0.30400,   0.00,   0.00,   0.00,  0.00000,  0.00000,  0.00000,  0.00000,1,1,   0.0,   1,1.0000,   0,1.0000,   0,1.0000,   0,1.0000
  209,   212,'1 ', 0.00450, 0.03560,0.43700,   0.00,   0.00,   0.00,  0.00000,  0.00000,  0.00000,  0.00000,1,1,   0.0,   1,1.0000,   0,1.0000,   0,1.0000,   0,1.0000
  210,   213,'1 ', 0.00100, 0.01450,1.54000,   0.00,   0.00,   0.00,  0.00000,  0.00000,  0.00000,  0.00000,1,1,   0.0,   1,1.0000,   0,1.0000,   0,1.0000,   0,1.0000
  210,   213,'2 ', 0.00100, 0.01450,1.54000,   0.00,   0.00,   0.00,  0.00000,  0.00000,  0.00000,  0.00000,1,1,   0.0,   1,1.0000,   0,1.0000,   0,1.0000,   0,1.0000
  211,   212,'1 ', 0.00140, 0.01080,0.13300,   0.00,   0.00,   0.00,  0.00000,  0.00000,  0.00000,  0.00000,1,1,   0.0,   1,1.0000,   0,1.0000,   0,1.0000,   0,1.0000
  211,   212,'2 ', 0.00140, 0.01080,0.13300,   0.00,   0.00,   0.00,  0.00000,  0.00000,  0.00000,  0.00000,1,1,   0.0,   1,1.0000,   0,1.0000,   0,1.0000,   0,1.0000
  211,   214,'1 ', 0.00190, 0.01550,0.19000,   0.00,   0.00,   0.00,  0.00000,  0.00000,  0.00000,  0.00000,1,1,   0.0,   1,1.0000,   0,1.0000,   0,1.0000,   0,1.0000
  212,   217,'1 ', 0.00700, 0.05580,0.68400,   0.00,   0.00,   0.00,  0.00000,  0.00000,  0.00000,  0.00000,1,1,   0.0,   1,1.0000,   0,1.0000,   0,1.0000,   0,1.0000
  214,   216,'1 ', 0.00100, 0.00770,0.09500,   0.00,   0.00,   0.00,  0.00000,  0.00000,  0.00000,  0.00000,1,1,   0.0,   1,1.0000,   0,1.0000,   0,1.0000,   0,1.0000
  214,   217,'1 ', 0.00490, 0.03880,0.47500,   0.00,   0.00,   0.00,  0.00000,  0.00000,  0.00000,  0.00000,1,1,   0.0,   1,1.0000,   0,1.0000,   0,1.0000,   0,1.0000
  215,   216,'1 ', 0.00510, 0.04030,0.49400,   0.00,   0.00,   0.00,  0.00000,  0.00000,  0.00000,  0.00000,1,1,   0.0,   1,1.0000,   0,1.0000,   0,1.0000,   0,1.0000
  215,   216,'2 ', 0.00510, 0.04030,0.49400,   0.00,   0.00,   0.00,  0.00000,  0.00000,  0.00000,  0.00000,1,1,   0.0,   1,1.0000,   0,1.0000,   0,1.0000,   0,1.0000
  215,   217,'1 ', 0.00720, 0.05740,0.70300,   0.00,   0.00,   0.00,  0.00000,  0.00000,  0.00000,  0.00000,1,1,   0.0,   1,1.0000,   0,1.0000,   0,1.0000,   0,1.0000
  215,   217,'2 ', 0.00720, 0.05740,0.70300,   0.00,   0.00,   0.00,  0.00000,  0.00000,  0.00000,  0.00000,1,1,   0.0,   1,1.0000,   0,1.0000,   0,1.0000,   0,1.0000
  216,   217,'1 ', 0.00510, 0.04030,0.49400,   0.00,   0.00,   0.00,  0.00000,  0.00000,  0.00000,  0.00000,1,1,   0.0,   1,1.0000,   0,1.0000,   0,1.0000,   0,1.0000
  303,   304,'1 ', 0.00200, 0.02800,0.74000,   0.00,   0.00,   0.00,  0.00000,  0.00000,  0.00000,  0.00000,1,1,   0.0,   1,1.0000,   0,1.0000,   0,1.0000,   0,1.0000
  303,   304,'2 ', 0.00200, 0.02800,0.74000,   0.00,   0.00,   0.00,  0.00000,  0.00000,  0.00000,  0.00000,1,1,   0.0,   1,1.0000,   0,1.0000,   0,1.0000,   0,1.0000
  303,   305,'1 ', 0.00110, 0.01600,1.70000,   0.00,   0.00,   0.00,  0.00000,  0.00000,  0.00000,  0.00000,1,1,   0.0,   1,1.0000,   0,1.0000,   0,1.0000,   0,1.0000
  303,   305,'2 ', 0.00110, 0.01600,1.70000,   0.00,   0.00,   0.00,  0.00000,  0.00000,  0.00000,  0.00000,1,1,   0.0,   1,1.0000,   0,1.0000,   0,1.0000,   0,1.0000
  304,   305,'1 ', 0.00030, 0.00400,0.42400,   0.00,   0.00,   0.00,  0.00000,  0.00000,  0.00000,  0.00000,1,1,   0.0,   1,1.0000,   0,1.0000,   0,1.0000,   0,1.0000
  305,   306,'1 ', 0.00020, 0.00300,0.32000,   0.00,   0.00,   0.00,  0.00000,  0.00000,  0.00000,  0.00000,1,1,   0.0,   1,1.0000,   0,1.0000,   0,1.0000,   0,1.0000
  305,   307,'1 ', 0.00030, 0.00450,0.44700,   0.00,   0.00,   0.00,  0.00000,  0.00000,  0.00000,  0.00000,1,1,   0.0,   1,1.0000,   0,1.0000,   0,1.0000,   0,1.0000
  305,   307,'2 ', 0.00030, 0.00450,0.44700,   0.00,   0.00,   0.00,  0.00000,  0.00000,  0.00000,  0.00000,1,1,   0.0,   1,1.0000,   0,1.0000,   0,1.0000,   0,1.0000
  306,   307,'1 ', 0.00010, 0.00120,0.12700,   0.00,   0.00,   0.00,  0.00000,  0.00000,  0.00000,  0.00000,1,1,   0.0,   1,1.0000,   0,1.0000,   0,1.0000,   0,1.0000
  307,   308,'1 ', 0.00230, 0.03250,3.44500,   0.00,   0.00,   0.00,  0.00000,  0.00000,  0.00000,  0.00000,1,1,   0.0,   1,1.0000,   0,1.0000,   0,1.0000,   0,1.0000
  307,   308,'2 ', 0.00230, 0.03250,3.44500,   0.00,   0.00,   0.00,  0.00000,  0.00000,  0.00000,  0.00000,1,1,   0.0,   1,1.0000,   0,1.0000,   0,1.0000,   0,1.0000
  309,   310,'1 ', 0.01350, 0.10695,0.58267,   0.00,   0.00,   0.00,  0.00000,  0.00000,  0.00000,  0.00000,1,1,   0.0,   1,1.0000,   0,1.0000,   0,1.0000,   0,1.0000
  309,   310,'2 ', 0.01350, 0.10695,0.58267,   0.00,   0.00,   0.00,  0.00000,  0.00000,  0.00000,  0.00000,1,1,   0.0,   1,1.0000,   0,1.0000,   0,1.0000,   0,1.0000
  309,   310,'3 ', 0.01350, 0.10695,0.58267,   0.00,   0.00,   0.00,  0.00000,  0.00000,  0.00000,  0.00000,1,1,   0.0,   1,1.0000,   0,1.0000,   0,1.0000,   0,1.0000
  310,   311,'1 ', 0.00000,-0.03370,0.00000,   0.00,   0.00,   0.00,  0.00000,  0.00000,  0.00000,  0.00000,1,1,   0.0,   1,1.0000,   0,1.0000,   0,1.0000,   0,1.0000
  310,   311,'2 ', 0.00000,-0.03370,0.00000,   0.00,   0.00,   0.00,  0.00000,  0.00000,  0.00000,  0.00000,1,1,   0.0,   1,1.0000,   0,1.0000,   0,1.0000,   0,1.0000
  312,   313,'1 ', 0.00600, 0.04500,0.30000,   0.00,   0.00,   0.00,  0.00000,  0.00000,  0.00000,  0.00000,1,1,   0.0,   1,1.0000,   0,1.0000,   0,1.0000,   0,1.0000
  312,   313,'2 ', 0.00600, 0.04500,0.30000,   0.00,   0.00,   0.00,  0.00000,  0.00000,  0.00000,  0.00000,1,1,   0.0,   1,1.0000,   0,1.0000,   0,1.0000,   0,1.0000
  312,   313,'3 ', 0.00600, 0.04500,0.30000,   0.00,   0.00,   0.00,  0.00000,  0.00000,  0.00000,  0.00000,1,1,   0.0,   1,1.0000,   0,1.0000,   0,1.0000,   0,1.0000
  313,   314,'1 ', 0.00100, 0.01000,0.26000,   0.00,   0.00,   0.00,  0.00000,  0.00000,  0.00000,  0.00000,1,1,   0.0,   1,1.0000,   0,1.0000,   0,1.0000,   0,1.0000
  313,   314,'2 ', 0.00100, 0.01000,0.26000,   0.00,   0.00,   0.00,  0.00000,  0.00000,  0.00000,  0.00000,1,1,   0.0,   1,1.0000,   0,1.0000,   0,1.0000,   0,1.0000
  315,   509,'1 ', 0.00700, 0.05000,0.19000,   0.00,   0.00,   0.00,  0.00000,  0.00000,  0.00000,  0.00000,1,1,   0.0,   1,1.0000,   0,1.0000,   0,1.0000,   0,1.0000
  315,   509,'2 ', 0.00700, 0.05000,0.19000,   0.00,   0.00,   0.00,  0.00000,  0.00000,  0.00000,  0.00000,1,1,   0.0,   1,1.0000,   0,1.0000,   0,1.0000,   0,1.0000
  405,   406,'1 ', 0.00390, 0.04750,0.38100,   0.00,   0.00,   0.00,  0.00000,  0.00000,  0.00000,  0.00000,1,1,   0.0,   1,1.0000,   0,1.0000,   0,1.0000,   0,1.0000
  405,   406,'2 ', 0.00390, 0.04750,0.38100,   0.00,   0.00,   0.00,  0.00000,  0.00000,  0.00000,  0.00000,1,1,   0.0,   1,1.0000,   0,1.0000,   0,1.0000,   0,1.0000
  405,   408,'1 ', 0.00540, 0.05000,0.18900,   0.00,   0.00,   0.00,  0.00000,  0.00000,  0.00000,  0.00000,1,1,   0.0,   1,1.0000,   0,1.0000,   0,1.0000,   0,1.0000
  405,   409,'1 ', 0.01800, 0.12200,0.79000,   0.00,   0.00,   0.00,  0.00000,  0.00000,  0.00000,  0.00000,1,1,   0.0,   1,1.0000,   0,1.0000,   0,1.0000,   0,1.0000
  405,   409,'2 ', 0.01800, 0.12200,0.79000,   0.00,   0.00,   0.00,  0.00000,  0.00000,  0.00000,  0.00000,1,1,   0.0,   1,1.0000,   0,1.0000,   0,1.0000,   0,1.0000
  405,   409,'3 ', 0.01800, 0.12200,0.79000,   0.00,   0.00,   0.00,  0.00000,  0.00000,  0.00000,  0.00000,1,1,   0.0,   1,1.0000,   0,1.0000,   0,1.0000,   0,1.0000
  406,   407,'1 ', 0.00060, 0.00760,0.06200,   0.00,   0.00,   0.00,  0.00000,  0.00000,  0.00000,  0.00000,1,1,   0.0,   1,1.0000,   0,1.0000,   0,1.0000,   0,1.0000
  406,   407,'2 ', 0.00060, 0.00760,0.06200,   0.00,   0.00,   0.00,  0.00000,  0.00000,  0.00000,  0.00000,1,1,   0.0,   1,1.0000,   0,1.0000,   0,1.0000,   0,1.0000
  407,   408,'1 ', 0.00420, 0.05130,0.41200,   0.00,   0.00,   0.00,  0.00000,  0.00000,  0.00000,  0.00000,1,1,   0.0,   1,1.0000,   0,1.0000,   0,1.0000,   0,1.0000
  408,   410,'1 ', 0.01650, 0.19200,0.67333,   0.00,   0.00,   0.00,  0.00000,  0.00000,  0.00000,  0.00000,1,1,   0.0,   1,1.0000,   0,1.0000,   0,1.0000,   0,1.0000
  408,   410,'2 ', 0.01650, 0.19200,0.67333,   0.00,   0.00,   0.00,  0.00000,  0.00000,  0.00000,  0.00000,1,1,   0.0,   1,1.0000,   0,1.0000,   0,1.0000,   0,1.0000
  408,   410,'3 ', 0.01650, 0.19200,0.67333,   0.00,   0.00,   0.00,  0.00000,  0.00000,  0.00000,  0.00000,1,1,   0.0,   1,1.0000,   0,1.0000,   0,1.0000,   0,1.0000
  409,   411,'1 ', 0.01030, 0.07090,0.46000,   0.00,   0.00,   0.00,  0.00000,  0.00000,  0.00000,  0.00000,1,1,   0.0,   1,1.0000,   0,1.0000,   0,1.0000,   0,1.0000
  409,   411,'2 ', 0.01030, 0.07090,0.46000,   0.00,   0.00,   0.00,  0.00000,  0.00000,  0.00000,  0.00000,1,1,   0.0,   1,1.0000,   0,1.0000,   0,1.0000,   0,1.0000
  410,   411,'1 ', 0.00430, 0.05320,0.42700,   0.00,   0.00,   0.00,  0.00000,  0.00000,  0.00000,  0.00000,1,1,   0.0,   1,1.0000,   0,1.0000,   0,1.0000,   0,1.0000
  410,   412,'1 ', 0.00430, 0.05320,0.42700,   0.00,   0.00,   0.00,  0.00000,  0.00000,  0.00000,  0.00000,1,1,   0.0,   1,1.0000,   0,1.0000,   0,1.0000,   0,1.0000
  410,   412,'2 ', 0.00430, 0.05320,0.42700,   0.00,   0.00,   0.00,  0.00000,  0.00000,  0.00000,  0.00000,1,1,   0.0,   1,1.0000,   0,1.0000,   0,1.0000,   0,1.0000
  410,   412,'3 ', 0.00430, 0.05320,0.42700,   0.00,   0.00,   0.00,  0.00000,  0.00000,  0.00000,  0.00000,1,1,   0.0,   1,1.0000,   0,1.0000,   0,1.0000,   0,1.0000
  410,   412,'4 ', 0.00430, 0.05320,0.42700,   0.00,   0.00,   0.00,  0.00000,  0.00000,  0.00000,  0.00000,1,1,   0.0,   1,1.0000,   0,1.0000,   0,1.0000,   0,1.0000
  410,   413,'1 ', 0.00400, 0.04940,0.40000,   0.00,   0.00,   0.00,  0.00000,  0.00000,  0.00000,  0.00000,1,1,   0.0,   1,1.0000,   0,1.0000,   0,1.0000,   0,1.0000
  410,   413,'2 ', 0.00400, 0.04940,0.40000,   0.00,   0.00,   0.00,  0.00000,  0.00000,  0.00000,  0.00000,1,1,   0.0,   1,1.0000,   0,1.0000,   0,1.0000,   0,1.0000
  411,   412,'1 ', 0.00120, 0.01520,0.12200,   0.00,   0.00,   0.00,  0.00000,  0.00000,  0.00000,  0.00000,1,1,   0.0,   1,1.0000,   0,1.0000,   0,1.0000,   0,1.0000
  411,   412,'2 ', 0.00120, 0.01520,0.12200,   0.00,   0.00,   0.00,  0.00000,  0.00000,  0.00000,  0.00000,1,1,   0.0,   1,1.0000,   0,1.0000,   0,1.0000,   0,1.0000
  414,   415,'1 ', 0.00200, 0.02500,0.39000,   0.00,   0.00,   0.00,  0.00000,  0.00000,  0.00000,  0.00000,1,1,   0.0,   1,1.0000,   0,1.0000,   0,1.0000,   0,1.0000
  414,   415,'2 ', 0.00200, 0.02500,0.39000,   0.00,   0.00,   0.00,  0.00000,  0.00000,  0.00000,  0.00000,1,1,   0.0,   1,1.0000,   0,1.0000,   0,1.0000,   0,1.0000
  415,   416,'1 ', 0.00370, 0.04600,0.73000,   0.00,   0.00,   0.00,  0.00000,  0.00000,  0.00000,  0.00000,1,1,   0.0,   1,1.0000,   0,1.0000,   0,1.0000,   0,1.0000
  415,   416,'2 ', 0.00370, 0.04600,0.73000,   0.00,   0.00,   0.00,  0.00000,  0.00000,  0.00000,  0.00000,1,1,   0.0,   1,1.0000,   0,1.0000,   0,1.0000,   0,1.0000
  504,   507,'1 ', 0.02300, 0.15000,0.56000,   0.00,   0.00,   0.00,  0.00000,  0.00000,  0.00000,  0.00000,1,1,   0.0,   1,1.0000,   0,1.0000,   0,1.0000,   0,1.0000
  504,   507,'2 ', 0.02300, 0.15000,0.56000,   0.00,   0.00,   0.00,  0.00000,  0.00000,  0.00000,  0.00000,1,1,   0.0,   1,1.0000,   0,1.0000,   0,1.0000,   0,1.0000
  504,   508,'1 ', 0.02600, 0.01900,0.87000,   0.00,   0.00,   0.00,  0.00000,  0.00000,  0.00000,  0.00000,1,1,   0.0,   1,1.0000,   0,1.0000,   0,1.0000,   0,1.0000
  504,   508,'2 ', 0.02600, 0.01900,0.87000,   0.00,   0.00,   0.00,  0.00000,  0.00000,  0.00000,  0.00000,1,1,   0.0,   1,1.0000,   0,1.0000,   0,1.0000,   0,1.0000
  505,   507,'1 ', 0.00160, 0.01700,0.03000,   0.00,   0.00,   0.00,  0.00000,  0.00000,  0.00000,  0.00000,1,1,   0.0,   1,1.0000,   0,1.0000,   0,1.0000,   0,1.0000
  505,   507,'2 ', 0.00160, 0.01700,0.03000,   0.00,   0.00,   0.00,  0.00000,  0.00000,  0.00000,  0.00000,1,1,   0.0,   1,1.0000,   0,1.0000,   0,1.0000,   0,1.0000
  505,   508,'1 ', 0.00250, 0.02800,0.17000,   0.00,   0.00,   0.00,  0.00000,  0.00000,  0.00000,  0.00000,1,1,   0.0,   1,1.0000,   0,1.0000,   0,1.0000,   0,1.0000
  506,   507,'1 ', 0.00160, 0.01700,0.03000,   0.00,   0.00,   0.00,  0.00000,  0.00000,  0.00000,  0.00000,1,1,   0.0,   1,1.0000,   0,1.0000,   0,1.0000,   0,1.0000
  506,   507,'2 ', 0.00160, 0.01700,0.03000,   0.00,   0.00,   0.00,  0.00000,  0.00000,  0.00000,  0.00000,1,1,   0.0,   1,1.0000,   0,1.0000,   0,1.0000,   0,1.0000
  506,   508,'1 ', 0.00300, 0.02800,0.14000,   0.00,   0.00,   0.00,  0.00000,  0.00000,  0.00000,  0.00000,1,1,   0.0,   1,1.0000,   0,1.0000,   0,1.0000,   0,1.0000
  507,   508,'1 ', 0.00200, 0.01900,0.09000,   0.00,   0.00,   0.00,  0.00000,  0.00000,  0.00000,  0.00000,1,1,   0.0,   1,1.0000,   0,1.0000,   0,1.0000,   0,1.0000
  507,   509,'1 ', 0.09000, 0.66000,0.30000,   0.00,   0.00,   0.00,  0.00000,  0.00000,  0.00000,  0.00000,1,1,   0.0,   1,1.0000,   0,1.0000,   0,1.0000,   0,1.0000
  507,   509,'2 ', 0.09000, 0.66000,0.30000,   0.00,   0.00,   0.00,  0.00000,  0.00000,  0.00000,  0.00000,1,1,   0.0,   1,1.0000,   0,1.0000,   0,1.0000,   0,1.0000
  507,   509,'3 ', 0.09000, 0.66000,0.30000,   0.00,   0.00,   0.00,  0.00000,  0.00000,  0.00000,  0.00000,1,1,   0.0,   1,1.0000,   0,1.0000,   0,1.0000,   0,1.0000
  507,   509,'4 ', 0.09000, 0.66000,0.30000,   0.00,   0.00,   0.00,  0.00000,  0.00000,  0.00000,  0.00000,1,1,   0.0,   1,1.0000,   0,1.0000,   0,1.0000,   0,1.0000
  507,   509,'5 ', 0.09000, 0.66000,0.30000,   0.00,   0.00,   0.00,  0.00000,  0.00000,  0.00000,  0.00000,1,1,   0.0,   1,1.0000,   0,1.0000,   0,1.0000,   0,1.0000
  507,   509,'6 ', 0.09000, 0.66000,0.30000,   0.00,   0.00,   0.00,  0.00000,  0.00000,  0.00000,  0.00000,1,1,   0.0,   1,1.0000,   0,1.0000,   0,1.0000,   0,1.0000
0 / END OF BRANCH DATA, BEGIN TRANSFORMER DATA
  101,  102,    0,'1 ',1,1,1,  0.00000,  0.00000,2,'            ',1,   1,1.0000,   0,1.0000,   0,1.0000,   0,1.0000
 0.00000, 0.01800, 100.00
1.00000, 15.000,   0.000,   0.00,   0.00,   0.00,0,     0, 1.10000, 0.90000, 1.10000, 0.90000, 33, 0, 0.00000, 0.00000
1.00000,330.000
  201,  206,    0,'1 ',1,1,1,  0.00000,  0.00000,2,'            ',1,   1,1.0000,   0,1.0000,   0,1.0000,   0,1.0000
 0.00000, 0.00600, 100.00
1.00000, 20.000,   0.000,   0.00,   0.00,   0.00,0,     0, 1.10000, 0.90000, 1.10000, 0.90000, 33, 0, 0.00000, 0.00000
1.00000,330.000
  202,  209,    0,'1 ',1,1,1,  0.00000,  0.00000,2,'            ',1,   1,1.0000,   0,1.0000,   0,1.0000,   0,1.0000
 0.00000, 0.00960, 100.00
1.00000, 20.000,   0.000,   0.00,   0.00,   0.00,0,     0, 1.10000, 0.90000, 1.10000, 0.90000, 33, 0, 0.00000, 0.00000
1.00000,330.000
  203,  208,    0,'1 ',1,1,1,  0.00000,  0.00000,2,'            ',1,   1,1.0000,   0,1.0000,   0,1.0000,   0,1.0000
 0.00000, 0.01020, 100.00
1.00000, 20.000,   0.000,   0.00,   0.00,   0.00,0,     0, 1.10000, 0.90000, 1.10000, 0.90000, 33, 0, 0.00000, 0.00000
1.00000,330.000
  204,  215,    0,'1 ',1,1,1,  0.00000,  0.00000,2,'            ',1,   1,1.0000,   0,1.0000,   0,1.0000,   0,1.0000
 0.00000, 0.00600, 100.00
1.00000, 20.000,   0.000,   0.00,   0.00,   0.00,0,     0, 1.10000, 0.90000, 1.10000, 0.90000, 33, 0, 0.00000, 0.00000
1.00000,330.000
  209,  210,    0,'1 ',1,1,1,  0.00000,  0.00000,2,'            ',1,   1,1.0000,   0,1.0000,   0,1.0000,   0,1.0000
 0.00000, 0.02720, 100.00
0.97560,330.000,   0.000,   0.00,   0.00,   0.00,0,     0, 1.10000, 0.90000, 1.10000, 0.90000, 33, 0, 0.00000, 0.00000
1.00000,500.000
  209,  210,    0,'2 ',1,1,1,  0.00000,  0.00000,2,'            ',1,   1,1.0000,   0,1.0000,   0,1.0000,   0,1.0000
 0.00000, 0.02720, 100.00
0.97560,330.000,   0.000,   0.00,   0.00,   0.00,0,     0, 1.10000, 0.90000, 1.10000, 0.90000, 33, 0, 0.00000, 0.00000
1.00000,500.000
  209,  210,    0,'3 ',1,1,1,  0.00000,  0.00000,2,'            ',1,   1,1.0000,   0,1.0000,   0,1.0000,   0,1.0000
 0.00000, 0.02720, 100.00
0.97560,330.000,   0.000,   0.00,   0.00,   0.00,0,     0, 1.10000, 0.90000, 1.10000, 0.90000, 33, 0, 0.00000, 0.00000
1.00000,500.000
  209,  210,    0,'4 ',1,1,1,  0.00000,  0.00000,2,'            ',1,   1,1.0000,   0,1.0000,   0,1.0000,   0,1.0000
 0.00000, 0.02720, 100.00
0.97560,330.000,   0.000,   0.00,   0.00,   0.00,0,     0, 1.10000, 0.90000, 1.10000, 0.90000, 33, 0, 0.00000, 0.00000
1.00000,500.000
  213,  214,    0,'1 ',1,1,1,  0.00000,  0.00000,2,'            ',1,   1,1.0000,   0,1.0000,   0,1.0000,   0,1.0000
 0.00000, 0.02720, 100.00
1.00000,500.000,   0.000,   0.00,   0.00,   0.00,0,     0, 1.10000, 0.90000, 1.10000, 0.90000, 33, 0, 0.00000, 0.00000
1.00000,330.000
  213,  214,    0,'2 ',1,1,1,  0.00000,  0.00000,2,'            ',1,   1,1.0000,   0,1.0000,   0,1.0000,   0,1.0000
 0.00000, 0.02720, 100.00
1.00000,500.000,   0.000,   0.00,   0.00,   0.00,0,     0, 1.10000, 0.90000, 1.10000, 0.90000, 33, 0, 0.00000, 0.00000
1.00000,330.000
  213,  214,    0,'3 ',1,1,1,  0.00000,  0.00000,2,'            ',1,   1,1.0000,   0,1.0000,   0,1.0000,   0,1.0000
 0.00000, 0.02720, 100.00
1.00000,500.000,   0.000,   0.00,   0.00,   0.00,0,     0, 1.10000, 0.90000, 1.10000, 0.90000, 33, 0, 0.00000, 0.00000
1.00000,330.000
  213,  214,    0,'4 ',1,1,1,  0.00000,  0.00000,2,'            ',1,   1,1.0000,   0,1.0000,   0,1.0000,   0,1.0000
 0.00000, 0.02720, 100.00
1.00000,500.000,   0.000,   0.00,   0.00,   0.00,0,     0, 1.10000, 0.90000, 1.10000, 0.90000, 33, 0, 0.00000, 0.00000
1.00000,330.000
  301,  303,    0,'1 ',1,1,1,  0.00000,  0.00000,2,'            ',1,   1,1.0000,   0,1.0000,   0,1.0000,   0,1.0000
 0.00000, 0.00400, 100.00
1.00000, 20.000,   0.000,   0.00,   0.00,   0.00,0,     0, 1.10000, 0.90000, 1.10000, 0.90000, 33, 0, 0.00000, 0.00000
1.00000,500.000
  302,  312,    0,'1 ',1,1,1,  0.00000,  0.00000,2,'            ',1,   1,1.0000,   0,1.0000,   0,1.0000,   0,1.0000
 0.00000, 0.01690, 100.00
1.00000, 20.000,   0.000,   0.00,   0.00,   0.00,0,     0, 1.10000, 0.90000, 1.10000, 0.90000, 33, 0, 0.00000, 0.00000
1.00000,220.000
  304,  313,    0,'1 ',1,1,1,  0.00000,  0.00000,2,'            ',1,   1,1.0000,   0,1.0000,   0,1.0000,   0,1.0000
 0.00000, 0.03200, 100.00
0.96150,500.000,   0.000,   0.00,   0.00,   0.00,0,     0, 1.10000, 0.90000, 1.10000, 0.90000, 33, 0, 0.00000, 0.00000
1.00000,220.000
  304,  313,    0,'2 ',1,1,1,  0.00000,  0.00000,2,'            ',1,   1,1.0000,   0,1.0000,   0,1.0000,   0,1.0000
 0.00000, 0.03200, 100.00
0.96150,500.000,   0.000,   0.00,   0.00,   0.00,0,     0, 1.10000, 0.90000, 1.10000, 0.90000, 33, 0, 0.00000, 0.00000
1.00000,220.000
  305,  311,    0,'1 ',1,1,1,  0.00000,  0.00000,2,'            ',1,   1,1.0000,   0,1.0000,   0,1.0000,   0,1.0000
 0.00000, 0.03600, 100.00
1.00000,500.000,   0.000,   0.00,   0.00,   0.00,0,     0, 1.10000, 0.90000, 1.10000, 0.90000, 33, 0, 0.00000, 0.00000
1.00000,330.000
  305,  311,    0,'2 ',1,1,1,  0.00000,  0.00000,2,'            ',1,   1,1.0000,   0,1.0000,   0,1.0000,   0,1.0000
 0.00000, 0.03600, 100.00
1.00000,500.000,   0.000,   0.00,   0.00,   0.00,0,     0, 1.10000, 0.90000, 1.10000, 0.90000, 33, 0, 0.00000, 0.00000
1.00000,330.000
  305,  311,    0,'3 ',1,1,1,  0.00000,  0.00000,2,'            ',1,   1,1.0000,   0,1.0000,   0,1.0000,   0,1.0000
 0.00000, 0.03600, 100.00
1.00000,500.000,   0.000,   0.00,   0.00,   0.00,0,     0, 1.10000, 0.90000, 1.10000, 0.90000, 33, 0, 0.00000, 0.00000
1.00000,330.000
  305,  314,    0,'1 ',1,1,1,  0.00000,  0.00000,2,'            ',1,   1,1.0000,   0,1.0000,   0,1.0000,   0,1.0000
 0.00000, 0.02400, 100.00
1.00000,500.000,   0.000,   0.00,   0.00,   0.00,0,     0, 1.10000, 0.90000, 1.10000, 0.90000, 33, 0, 0.00000, 0.00000
1.00000,220.000
  305,  314,    0,'2 ',1,1,1,  0.00000,  0.00000,2,'            ',1,   1,1.0000,   0,1.0000,   0,1.0000,   0,1.0000
 0.00000, 0.02400, 100.00
1.00000,500.000,   0.000,   0.00,   0.00,   0.00,0,     0, 1.10000, 0.90000, 1.10000, 0.90000, 33, 0, 0.00000, 0.00000
1.00000,220.000
  308,  315,    0,'1 ',1,1,1,  0.00000,  0.00000,2,'            ',1,   1,1.0000,   0,1.0000,   0,1.0000,   0,1.0000
 0.00000, 0.02700, 100.00
1.00000,500.000,   0.000,   0.00,   0.00,   0.00,0,     0, 1.10000, 0.90000, 1.10000, 0.90000, 33, 0, 0.00000, 0.00000
1.00000,275.000
  308,  315,    0,'2 ',1,1,1,  0.00000,  0.00000,2,'            ',1,   1,1.0000,   0,1.0000,   0,1.0000,   0,1.0000
 0.00000, 0.02700, 100.00
1.00000,500.000,   0.000,   0.00,   0.00,   0.00,0,     0, 1.10000, 0.90000, 1.10000, 0.90000, 33, 0, 0.00000, 0.00000
1.00000,275.000
  401,  410,    0,'1 ',1,1,1,  0.00000,  0.00000,2,'            ',1,   1,1.0000,   0,1.0000,   0,1.0000,   0,1.0000
 0.00000, 0.01127, 100.00
1.00000, 20.000,   0.000,   0.00,   0.00,   0.00,0,     0, 1.10000, 0.90000, 1.10000, 0.90000, 33, 0, 0.00000, 0.00000
1.00000,275.000
  402,  408,    0,'1 ',1,1,1,  0.00000,  0.00000,2,'            ',1,   1,1.0000,   0,1.0000,   0,1.0000,   0,1.0000
 0.00000, 0.02550, 100.00
1.00000, 20.000,   0.000,   0.00,   0.00,   0.00,0,     0, 1.10000, 0.90000, 1.10000, 0.90000, 33, 0, 0.00000, 0.00000
1.00000,275.000
  403,  407,    0,'1 ',1,1,1,  0.00000,  0.00000,2,'            ',1,   1,1.0000,   0,1.0000,   0,1.0000,   0,1.0000
 0.00000, 0.01127, 100.00
1.00000, 20.000,   0.000,   0.00,   0.00,   0.00,0,     0, 1.10000, 0.90000, 1.10000, 0.90000, 33, 0, 0.00000, 0.00000
1.00000,275.000
  404,  405,    0,'1 ',1,1,1,  0.00000,  0.00000,2,'            ',1,   1,1.0000,   0,1.0000,   0,1.0000,   0,1.0000
 0.00000, 0.01700, 100.00
1.00000, 20.000,   0.000,   0.00,   0.00,   0.00,0,     0, 1.10000, 0.90000, 1.10000, 0.90000, 33, 0, 0.00000, 0.00000
1.00000,275.000
  413,  414,    0,'1 ',1,1,1,  0.00000,  0.00000,2,'            ',1,   1,1.0000,   0,1.0000,   0,1.0000,   0,1.0000
 0.00000, 0.00800, 100.00
1.00000,275.000,   0.000,   0.00,   0.00,   0.00,0,     0, 1.10000, 0.90000, 1.10000, 0.90000, 33, 0, 0.00000, 0.00000
0.98520,330.000
  413,  414,    0,'2 ',1,1,1,  0.00000,  0.00000,2,'            ',1,   1,1.0000,   0,1.0000,   0,1.0000,   0,1.0000
 0.00000, 0.00800, 100.00
1.00000,275.000,   0.000,   0.00,   0.00,   0.00,0,     0, 1.10000, 0.90000, 1.10000, 0.90000, 33, 0, 0.00000, 0.00000
0.98520,330.000
  413,  414,    0,'3 ',1,1,1,  0.00000,  0.00000,2,'            ',1,   1,1.0000,   0,1.0000,   0,1.0000,   0,1.0000
 0.00000, 0.00800, 100.00
1.00000,275.000,   0.000,   0.00,   0.00,   0.00,0,     0, 1.10000, 0.90000, 1.10000, 0.90000, 33, 0, 0.00000, 0.00000
0.98520,330.000
  501,  504,    0,'1 ',1,1,1,  0.00000,  0.00000,2,'            ',1,   1,1.0000,   0,1.0000,   0,1.0000,   0,1.0000
 0.00000, 0.02550, 100.00
1.00000, 20.000,   0.000,   0.00,   0.00,   0.00,0,     0, 1.10000, 0.90000, 1.10000, 0.90000, 33, 0, 0.00000, 0.00000
1.00000,275.000
  502,  505,    0,'1 ',1,1,1,  0.00000,  0.00000,2,'            ',1,   1,1.0000,   0,1.0000,   0,1.0000,   0,1.0000
 0.00000, 0.02133, 100.00
1.00000, 15.000,   0.000,   0.00,   0.00,   0.00,0,     0, 1.10000, 0.90000, 1.10000, 0.90000, 33, 0, 0.00000, 0.00000
1.00000,275.000
  503,  506,    0,'1 ',1,1,1,  0.00000,  0.00000,2,'            ',1,   1,1.0000,   0,1.0000,   0,1.0000,   0,1.0000
 0.00000, 0.10000, 100.00
1.00000, 15.000,   0.000,   0.00,   0.00,   0.00,0,     0, 1.10000, 0.90000, 1.10000, 0.90000, 33, 0, 0.00000, 0.00000
1.00000,275.000
0 / END OF TRANSFORMER DATA, BEGIN AREA DATA
   1,    0,     0.000,     1.000,'1           '
   2,    0,     0.000,     1.000,'2           '
   3,    0,     0.000,     1.000,'3           '
   4,    0,     0.000,     1.000,'4           '
   5,    0,     0.000,     1.000,'5           '
0 / END OF AREA DATA, BEGIN TWO-TERMINAL DC DATA
0 / END OF TWO-TERMINAL DC DATA, BEGIN VOLTAGE SOURCE CONVERTER DATA
0 / END OF VOLTAGE SOURCE CONVERTER DATA, BEGIN IMPEDANCE CORRECTION DATA
0 / END OF IMPEDANCE CORRECTION DATA, BEGIN MULTI-TERMINAL DC DATA
0 / END OF MULTI-TERMINAL DC DATA, BEGIN MULTI-SECTION LINE DATA
0 / END OF MULTI-SECTION LINE DATA, BEGIN ZONE DATA
   1,'1       '
0 / END OF ZONE DATA, BEGIN INTER-AREA TRANSFER DATA
0 / END OF INTER-AREA TRANSFER DATA, BEGIN OWNER DATA
    1,'1'
0 / END OF OWNER DATA, BEGIN FACTS CONTROL DEVICE DATA
0 / END OF FACTS CONTROL DEVICE DATA, BEGIN SWITCHED SHUNT DATA
0 /END OF SWITCHED SHUNT DATA, BEGIN GNE DEVICE DATA
0 /END OF GNE DEVICE DATA
Q
